FoamFile
{
    version     2.0;
    format      ascii;
    class       dictionary;
    object      blockMeshDict;
}
convertToMeters 1;
vertices
(
    (0 0 0)
    (0 0 0.2)
    (0 0 0.25)
    (0 0 1)
    (0 0.2 0)
    (0 0.2 0.2)
    (0 0.2 0.25)
    (0 0.2 1)
    (0 0.25 0)
    (0 0.25 0.2)
    (0 0.25 0.25)
    (0 0.25 1)
    (0 0.3 0)
    (0 0.3 0.2)
    (0 0.3 0.25)
    (0 0.3 1)
    (0.1 0 0)
    (0.1 0 0.2)
    (0.1 0 0.25)
    (0.1 0 1)
    (0.1 0.2 0)
    (0.1 0.2 0.2)
    (0.1 0.2 0.25)
    (0.1 0.2 1)
    (0.1 0.25 0)
    (0.1 0.25 0.2)
    (0.1 0.25 0.25)
    (0.1 0.25 1)
    (0.1 0.3 0)
    (0.1 0.3 0.2)
    (0.1 0.3 0.25)
    (0.1 0.3 1)
    (0.7 0 0)
    (0.7 0 0.2)
    (0.7 0 0.25)
    (0.7 0 1)
    (0.7 0.2 0)
    (0.7 0.2 0.2)
    (0.7 0.2 0.25)
    (0.7 0.2 1)
    (0.7 0.25 0)
    (0.7 0.25 0.2)
    (0.7 0.25 0.25)
    (0.7 0.25 1)
    (0.7 0.3 0)
    (0.7 0.3 0.2)
    (0.7 0.3 0.25)
    (0.7 0.3 1)
    (0.8 0 0)
    (0.8 0 0.2)
    (0.8 0 0.25)
    (0.8 0 1)
    (0.8 0.2 0)
    (0.8 0.2 0.2)
    (0.8 0.2 0.25)
    (0.8 0.2 1)
    (0.8 0.25 0)
    (0.8 0.25 0.2)
    (0.8 0.25 0.25)
    (0.8 0.25 1)
    (0.8 0.3 0)
    (0.8 0.3 0.2)
    (0.8 0.3 0.25)
    (0.8 0.3 1)
);
blocks
(
    hex (0 16 20 4 1 17 21 5) (4 8 8) simpleGrading (1 1 1)
    hex (1 17 21 5 2 18 22 6) (4 8 2) simpleGrading (1 1 1)
    hex (2 18 22 6 3 19 23 7) (4 8 30) simpleGrading (1 1 1)
    hex (4 20 24 8 5 21 25 9) (4 2 8) simpleGrading (1 1 1)
    hex (5 21 25 9 6 22 26 10) (4 2 2) simpleGrading (1 1 1)
    hex (6 22 26 10 7 23 27 11) (4 2 30) simpleGrading (1 1 1)
    hex (8 24 28 12 9 25 29 13) (4 3 8) simpleGrading (1 1 1)
    hex (9 25 29 13 10 26 30 14) (4 3 2) simpleGrading (1 1 1)
    hex (10 26 30 14 11 27 31 15) (4 3 30) simpleGrading (1 1 1)
    hex (16 32 36 20 17 33 37 21) (24 8 8) simpleGrading (1 1 1)
    hex (17 33 37 21 18 34 38 22) (24 8 2) simpleGrading (1 1 1)
    hex (18 34 38 22 19 35 39 23) (24 8 30) simpleGrading (1 1 1)
    hex (20 36 40 24 21 37 41 25) (24 2 8) simpleGrading (1 1 1)
    hex (22 38 42 26 23 39 43 27) (24 2 30) simpleGrading (1 1 1)
    hex (24 40 44 28 25 41 45 29) (24 3 8) simpleGrading (1 1 1)
    hex (25 41 45 29 26 42 46 30) (24 3 2) simpleGrading (1 1 1)
    hex (26 42 46 30 27 43 47 31) (24 3 30) simpleGrading (1 1 1)
    hex (32 48 52 36 33 49 53 37) (5 8 8) simpleGrading (1 1 1)
    hex (33 49 53 37 34 50 54 38) (5 8 2) simpleGrading (1 1 1)
    hex (34 50 54 38 35 51 55 39) (5 8 30) simpleGrading (1 1 1)
    hex (36 52 56 40 37 53 57 41) (5 2 8) simpleGrading (1 1 1)
    hex (37 53 57 41 38 54 58 42) (5 2 2) simpleGrading (1 1 1)
    hex (38 54 58 42 39 55 59 43) (5 2 30) simpleGrading (1 1 1)
    hex (40 56 60 44 41 57 61 45) (5 3 8) simpleGrading (1 1 1)
    hex (41 57 61 45 42 58 62 46) (5 3 2) simpleGrading (1 1 1)
    hex (42 58 62 46 43 59 63 47) (5 3 30) simpleGrading (1 1 1)
);
edges
(
);
boundary
(
    floor
   {
        type wall;
        faces
        (
            (0 4 20 16)
            (4 8 24 20)
            (8 12 28 24)
            (16 20 36 32)
            (20 24 40 36)
            (24 28 44 40)
            (32 36 52 48)
            (36 40 56 52)
            (40 44 60 56)
        );
    }
    ceiling
   {
        type wall;
        faces
        (
            (3 19 23 7)
            (7 23 27 11)
            (11 27 31 15)
            (19 35 39 23)
            (23 39 43 27)
            (27 43 47 31)
            (35 51 55 39)
            (39 55 59 43)
            (43 59 63 47)
        );
    }
    fixedWalls
   {
        type wall;
        faces
        (
            (1 5 4 0)
            (2 6 5 1)
            (3 7 6 2)
            (5 9 8 4)
            (6 10 9 5)
            (7 11 10 6)
            (9 13 12 8)
            (10 14 13 9)
            (11 15 14 10)
            (48 52 53 49)
            (49 53 54 50)
            (50 54 55 51)
            (52 56 57 53)
            (53 57 58 54)
            (54 58 59 55)
            (56 60 61 57)
            (57 61 62 58)
            (58 62 63 59)
            (0 16 17 1)
            (1 17 18 2)
            (2 18 19 3)
            (16 32 33 17)
            (17 33 34 18)
            (18 34 35 19)
            (32 48 49 33)
            (33 49 50 34)
            (34 50 51 35)
            (12 13 29 28)
            (13 14 30 29)
            (14 15 31 30)
            (28 29 45 44)
            (29 30 46 45)
            (30 31 47 46)
            (44 45 61 60)
            (45 46 62 61)
            (46 47 63 62)
        );
    }
    barramento
   {
        type wall;
        faces
        (
            (21 25 26 22)
            (21 22 38 37)
            (21 37 41 25)
            (22 26 42 38)
            (25 41 42 26)
            (38 42 41 37)
        );
    }
);
mergePatchPairs
(
);
